
Circuit: **.subckt inv_test

Scale set
binary raw file "/home/users/nhpoole/ee272b/ee272b_mixed_signal_mmwave_accelerator/simulations/inv_test.raw"
Doing analysis at TEMP = 27.000000 and TNOM = 27.000000

Warning: include: has no value, DC 0 assumed
Warning: vin: no DC value, transient time 0 value used
No. of Data Columns : 14  

Initial Transient Solution
--------------------------

Node                                   Voltage
----                                   -------
vdd                                        1.8
in                                           0
out                                        1.8
sky130_fd_pr__esd_nfet_05v0_nvt.pm3               0
                                             0
vin#branch                                   0
vdd#branch                        -2.03837e-12


No. of Data Rows : 11208

Total analysis time (seconds) = 0.696

Total elapsed time (seconds) = 101.944 

Total DRAM available = 96517.754 MB.
DRAM currently available = 73535.340 MB.
Maximum ngspice program size =  370.188 MB.
Current ngspice program size =  289.047 MB.

Shared ngspice pages =    3.367 MB.
Text (code) pages =    6.074 MB.
Stack = 0 bytes.
Library pages =  293.676 MB.

